2024_89_CemigReconfigurationCases/1_SEsCemig_2/TOTU03/TOTU03SegmentosBT.dss
new line.10168999 bus1=BBT7575990.1.2.0,bus2=BBT7575997.1.2.0,Phases=2,Linecode=BT811_BT811_4_2_3,Length=0.075802000,Units=km
new line.10169013 bus1=BBT7576193.1.0,bus2=BBT7576200.1.0,Phases=1,Linecode=BT811_BT811_4_1_3,Length=0.081504000,Units=km
new line.10169363 bus1=BBT7497044.2.0,bus2=BBT7497051.2.0,Phases=1,Linecode=BT811_BT811_4_1_3,Length=0.129884000,Units=km
new line.10169405 bus1=BBT7497023.1.0,bus2=BBT7497030.1.0,Phases=1,Linecode=BT106_BT106_7_1_1,Length=0.099291000,Units=km
new line.10169559 bus1=BBT7501447.1.0,bus2=BBT7501454.1.0,Phases=1,Linecode=BT106_BT106_7_1_1,Length=0.030254000,Units=km
new line.10171498 bus1=BBT4532026.1.2.0,bus2=BBT4532033.1.2.0,Phases=2,Linecode=BT808_BT808_4_2_3,Length=0.036238000,Units=km
new line.10171638 bus1=BBT2673610.1.2.0,bus2=BBT7453672.1.2.0,Phases=2,Linecode=BT507_BT507_7_2_1,Length=0.000500000,Units=km
new line.10171841 bus1=BBT7555284.1.2.0,bus2=BBT7555291.1.2.0,Phases=2,Linecode=BT811_BT811_4_2_3,Length=0.027899000,Units=km
new line.10172324 bus1=BBT5699745.1.0,bus2=BBT5699752.1.0,Phases=1,Linecode=BT106_BT106_7_1_1,Length=0.082674000,Units=km
new line.10172345 bus1=BBT5699045.1.0,bus2=BBT5699745.1.0,Phases=1,Linecode=BT106_BT106_7_1_1,Length=0.088022000,Units=km
new line.10172352 bus1=BBT5699038.1.2.0,bus2=BBT5699045.1.2.0,Phases=2,Linecode=BT518_BT518_7_2_1,Length=0.000502000,Units=km
new line.10172359 bus1=BBT5699045.2.0,bus2=BBT5699668.2.0,Phases=1,Linecode=BT106_BT106_7_1_1,Length=0.076042000,Units=km
new line.10172387 bus1=BBT5699668.2.0,bus2=BBT5699675.2.0,Phases=1,Linecode=BT106_BT106_7_1_1,Length=0.061002000,Units=km
new line.10172415 bus1=BBT5699675.2.0,bus2=BBT5699682.2.0,Phases=1,Linecode=BT106_BT106_7_1_1,Length=0.095762000,Units=km
new line.10172436 bus1=BBT5699682.2.0,bus2=BBT5699689.2.0,Phases=1,Linecode=BT106_BT106_7_1_1,Length=0.086574000,Units=km
new line.10172618 bus1=BBT7453266.1.0,bus2=BBT7453273.1.0,Phases=1,Linecode=BT206_BT206_7_1_1,Length=0.088537000,Units=km
new line.10172681 bus1=BBT5008817.1.2.0,bus2=BBT5277820.1.2.0,Phases=2,Linecode=BT808_BT808_4_2_3,Length=0.033231000,Units=km
new line.10172723 bus1=BBT5008453.2.0,bus2=BBT5008621.2.0,Phases=1,Linecode=BT206_BT206_7_1_1,Length=0.042046000,Units=km
new line.10172751 bus1=BBT5008418.2.0,bus2=BBT5008453.2.0,Phases=1,Linecode=BT206_BT206_7_1_1,Length=0.095178000,Units=km
new line.10172772 bus1=BBT5008397.1.0,bus2=BBT5008404.1.0,Phases=1,Linecode=BT206_BT206_7_1_1,Length=0.055018000,Units=km
new line.10172814 bus1=BBT5700102.1.0,bus2=BBT5700109.1.0,Phases=1,Linecode=BT106_BT106_7_1_1,Length=0.085016000,Units=km
new line.10172828 bus1=BBT5700095.1.0,bus2=BBT5700102.1.0,Phases=1,Linecode=BT106_BT106_7_1_1,Length=0.078365000,Units=km
new line.10174823 bus1=BBT7593035.1.0,bus2=BBT7593042.1.0,Phases=1,Linecode=BT811_BT811_4_1_3,Length=0.047663000,Units=km
new line.10175446 bus1=BBT3404375.1.2.0,bus2=BBT5837106.1.2.0,Phases=2,Linecode=BT808_BT808_4_2_3,Length=0.035991000,Units=km
new line.10175992 bus1=BBT7592972.2.0,bus2=BBT7592979.2.0,Phases=1,Linecode=BT206_BT206_7_1_1,Length=0.141360000,Units=km
new line.10176335 bus1=BBT7448086.2.0,bus2=BBT7448093.2.0,Phases=1,Linecode=BT811_BT811_4_1_3,Length=0.104986000,Units=km
new line.10176559 bus1=BBT4771027.1.2.0,bus2=BBT4771034.1.2.0,Phases=2,Linecode=BT808_BT808_4_2_3,Length=0.023188000,Units=km
new line.10176923 bus1=BBT7572357.1.0,bus2=BBT7572364.1.0,Phases=1,Linecode=BT811_BT811_4_1_3,Length=0.060816000,Units=km
new line.10177714 bus1=BBT7586693.1.0,bus2=BBT7586700.1.0,Phases=1,Linecode=BT106_BT106_7_1_1,Length=0.128812000,Units=km
new line.10177903 bus1=BBT7589598.1.0,bus2=BBT7589605.1.0,Phases=1,Linecode=BT811_BT811_4_1_3,Length=0.050205000,Units=km
new line.10177917 bus1=BBT7589612.1.0,bus2=BBT7589619.1.0,Phases=1,Linecode=BT206_BT206_7_1_1,Length=0.054189000,Units=km
new line.10177924 bus1=BBT7589612.1.0,bus2=BBT7589626.1.0,Phases=1,Linecode=BT811_BT811_4_1_3,Length=0.062220000,Units=km
new line.10178071 bus1=BBT7599538.1.0,bus2=BBT7599545.1.0,Phases=1,Linecode=BT811_BT811_4_1_3,Length=0.056870000,Units=km
new line.10178211 bus1=BBT7600532.2.0,bus2=BBT7600539.2.0,Phases=1,Linecode=BT106_BT106_7_1_1,Length=0.112860000,Units=km
new line.10178379 bus1=BBT7601925.2.0,bus2=BBT7601932.2.0,Phases=1,Linecode=BT106_BT106_7_1_1,Length=0.049664000,Units=km
new line.10182096 bus1=BBT7420870.1.0,bus2=BBT7420877.1.0,Phases=1,Linecode=BT811_BT811_4_1_3,Length=0.085198000,Units=km
new line.10182551 bus1=BBT7473706.2.0,bus2=BBT7473713.2.0,Phases=1,Linecode=BT106_BT106_7_1_1,Length=0.092676000,Units=km
new line.10182740 bus1=BBT7411959.1.0,bus2=BBT7411966.1.0,Phases=1,Linecode=BT206_BT206_7_1_1,Length=0.040993000,Units=km
new line.10183552 bus1=BBT7462793.1.0,bus2=BBT7462800.1.0,Phases=1,Linecode=BT106_BT106_7_1_1,Length=0.117140000,Units=km
new line.10186114 bus1=BBT5954846.1.2.0,bus2=BBT5954853.1.2.0,Phases=2,Linecode=BT521_BT521_7_2_1,Length=0.000500000,Units=km
new line.10186135 bus1=BBT5954895.2.0,bus2=BBT5954902.2.0,Phases=1,Linecode=BT206_BT206_7_1_1,Length=0.081531000,Units=km
new line.10186408 bus1=BBT7662083.2.0,bus2=BBT7662090.2.0,Phases=1,Linecode=BT811_BT811_4_1_3,Length=0.047668000,Units=km
new line.10188795 bus1=BBT7636141.2.0,bus2=BBT7636148.2.0,Phases=1,Linecode=BT811_BT811_4_1_3,Length=0.036998000,Units=km
new line.10188956 bus1=BBT4847180.1.2.0,bus2=BBT4847187.1.2.0,Phases=2,Linecode=BT808_BT808_4_2_3,Length=0.038882000,Units=km
new line.10189614 bus1=BBT2537257.1.2.0,bus2=BBT7662559.1.2.0,Phases=2,Linecode=BT518_BT518_7_2_1,Length=0.000500000,Units=km
new line.10189698 bus1=BBT7663553.1.0,bus2=BBT7663560.1.0,Phases=1,Linecode=BT206_BT206_7_1_1,Length=0.113541000,Units=km
new line.10190251 bus1=BBT7632844.1.0,bus2=BBT7632851.1.0,Phases=1,Linecode=BT811_BT811_4_1_3,Length=0.081970000,Units=km
new line.10190545 bus1=BBT7664267.1.2.0,bus2=BBT7664274.1.2.0,Phases=2,Linecode=BT518_BT518_7_2_1,Length=0.000500000,Units=km
new line.10191616 bus1=BBT11498433.1.0,bus2=BBT11498489.1.0,Phases=1,Linecode=BT811_BT811_4_1_3,Length=0.109975000,Units=km
new line.10191980 bus1=BBT21051361.2.0,bus2=BBT21051368.2.0,Phases=1,Linecode=BT206_BT206_7_1_1,Length=0.087037000,Units=km
new line.10192183 bus1=BBT7713932.2.0,bus2=BBT7713939.2.0,Phases=1,Linecode=BT206_BT206_7_1_1,Length=0.117839000,Units=km
new line.10192386 bus1=BBT7689509.2.0,bus2=BBT7689516.2.0,Phases=1,Linecode=BT106_BT106_7_1_1,Length=0.047983000,Units=km
new line.10192596 bus1=BBT21046272.2.0,bus2=BBT21046279.2.0,Phases=1,Linecode=BT206_BT206_7_1_1,Length=0.084924000,Units=km
new line.10193730 bus1=BBT7681606.1.0,bus2=BBT7681613.1.0,Phases=1,Linecode=BT811_BT811_4_1_3,Length=0.082018000,Units=km
new line.10193779 bus1=BBT7681592.1.0,bus2=BBT7681599.1.0,Phases=1,Linecode=BT811_BT811_4_1_3,Length=0.018389000,Units=km
new line.10193849 bus1=BBT7712112.2.0,bus2=BBT7712119.2.0,Phases=1,Linecode=BT811_BT811_4_1_3,Length=0.080931000,Units=km
new line.10193877 bus1=BBT7712504.1.0,bus2=BBT7712511.1.0,Phases=1,Linecode=BT811_BT811_4_1_3,Length=0.080038000,Units=km
new line.10193905 bus1=BBT7713470.1.0,bus2=BBT7713477.1.0,Phases=1,Linecode=BT811_BT811_4_1_3,Length=0.050462000,Units=km
new line.10193947 bus1=BBT7701633.1.2.0,bus2=BBT7701640.1.2.0,Phases=2,Linecode=BT808_BT808_4_2_3,Length=0.094986000,Units=km
new line.10094869 bus1=BBT4065329.1.2.0,bus2=BBT4065406.1.2.0,Phases=2,Linecode=BT807_BT807_4_2_3,Length=0.040835000,Units=km
new line.10095107 bus1=BBT4608991.1.2.0,bus2=BBT4065140.1.2.0,Phases=2,Linecode=BT801_BT801_4_2_3,Length=0.030070000,Units=km
new line.10095128 bus1=BBT4608984.1.2.0,bus2=BBT4608991.1.2.0,Phases=2,Linecode=BT107_BT106_7_2_1,Length=0.039944000,Units=km
new line.10095156 bus1=BBT2985831.1.2.0,bus2=BBT2985838.1.2.0,Phases=2,Linecode=BT808_BT808_4_2_3,Length=0.038062000,Units=km
new line.10095478 bus1=BBT154821831.1.2.0,bus2=BBT7720925.1.2.0,Phases=2,Linecode=BT808_BT808_4_2_3,Length=0.033106000,Units=km
new line.10095695 bus1=BBT3408113.1.2.0,bus2=BBT3408120.1.2.0,Phases=2,Linecode=BT106_BT106_7_2_1,Length=0.037199000,Units=km
new line.10095849 bus1=BBT7735058.2.0,bus2=BBT7735065.2.0,Phases=1,Linecode=BT206_BT206_7_1_1,Length=0.077632000,Units=km
new line.10096052 bus1=BBT20770206.2.0,bus2=BBT20770213.2.0,Phases=1,Linecode=BT811_BT811_4_1_3,Length=0.031631000,Units=km
new line.10096304 bus1=BBT3408064.1.2.0,bus2=BBT3408071.1.2.0,Phases=2,Linecode=BT801_BT801_4_2_3,Length=0.042619000,Units=km
new line.10096325 bus1=BBT3408057.1.2.0,bus2=BBT3408064.1.2.0,Phases=2,Linecode=BT801_BT801_4_2_3,Length=0.041213000,Units=km
new line.10096346 bus1=BBT3408078.1.2.0,bus2=BBT3408085.1.2.0,Phases=2,Linecode=BT808_BT808_4_2_3,Length=0.041019000,Units=km
new line.10096367 bus1=BBT3408085.1.2.0,bus2=BBT3408092.1.2.0,Phases=2,Linecode=BT801_BT801_4_2_3,Length=0.043398000,Units=km
new line.10096388 bus1=BBT3408092.1.2.0,bus2=BBT3408099.1.2.0,Phases=2,Linecode=BT801_BT801_4_2_3,Length=0.040033000,Units=km
new line.10096423 bus1=BBT3408043.1.2.0,bus2=BBT3408050.1.2.0,Phases=2,Linecode=BT801_BT801_4_2_3,Length=0.041982000,Units=km
new line.10096444 bus1=BBT3408036.1.2.0,bus2=BBT3408043.1.2.0,Phases=2,Linecode=BT801_BT801_4_2_3,Length=0.039442000,Units=km
new line.10096472 bus1=BBT3408029.1.2.0,bus2=BBT3408036.1.2.0,Phases=2,Linecode=BT808_BT808_4_2_3,Length=0.040590000,Units=km
new line.10096486 bus1=BBT5817163.1.2.3.0,bus2=BBT5817170.1.2.3.0,Phases=3,Linecode=BT810_BT810_4_3_4,Length=0.031291000,Units=km
new line.10096493 bus1=BBT5817163.1.2.3.0,bus2=BBT5817184.1.2.3.0,Phases=3,Linecode=BT810_BT810_4_3_4,Length=0.024586000,Units=km
new line.10098831 bus1=BBT5766861.1.2.0,bus2=BBT5766868.1.2.0,Phases=2,Linecode=BT518_BT518_7_2_1,Length=0.000502000,Units=km
new line.10100616 bus1=BBT7465439.1.2.0,bus2=BBT7465446.1.2.0,Phases=2,Linecode=BT518_BT518_7_2_1,Length=0.000500000,Units=km
new line.10101106 bus1=BBT3122849.1.2.0,bus2=BBT3122856.1.2.0,Phases=2,Linecode=BT518_BT518_7_2_1,Length=0.000554000,Units=km
new line.10102002 bus1=BBT2975674.1.2.0,bus2=BBT2975681.1.2.0,Phases=2,Linecode=BT518_BT518_7_2_1,Length=0.000500000,Units=km
new line.10105698 bus1=BBT6332412.1.0,bus2=BBT6332419.1.0,Phases=1,Linecode=BT811_BT811_4_1_3,Length=0.032639000,Units=km
new line.10234988 bus1=BBT3116122.1.2.0,bus2=BBT3116129.1.2.0,Phases=2,Linecode=BT518_BT518_7_2_1,Length=0.000500000,Units=km
new line.10238845 bus1=BBT3013908.1.2.0,bus2=BBT3013971.1.2.0,Phases=2,Linecode=BT808_BT808_4_2_3,Length=0.047404000,Units=km
new line.10238908 bus1=BBT3014293.1.2.0,bus2=BBT3014300.1.2.0,Phases=2,Linecode=BT106_BT106_7_2_1,Length=0.038054000,Units=km
new line.10238929 bus1=BBT3013901.1.2.0,bus2=BBT3013908.1.2.0,Phases=2,Linecode=BT106_BT106_7_2_1,Length=0.033220000,Units=km
new line.10238950 bus1=BBT3013880.1.2.0,bus2=BBT3013887.1.2.0,Phases=2,Linecode=BT108_BT107_7_2_1,Length=0.038975000,Units=km
new line.10238971 bus1=BBT3013789.1.2.0,bus2=BBT3013803.1.2.0,Phases=2,Linecode=BT801_BT801_4_2_3,Length=0.044282000,Units=km
new line.10238978 bus1=BBT3013789.1.2.0,bus2=BBT3013796.1.2.0,Phases=2,Linecode=BT801_BT801_4_2_3,Length=0.036535000,Units=km
new line.10238985 bus1=BBT3013789.1.2.0,bus2=BBT3013831.1.2.0,Phases=2,Linecode=BT801_BT801_4_2_3,Length=0.032875000,Units=km
new line.10239006 bus1=BBT3013803.1.2.0,bus2=BBT3013824.1.2.0,Phases=2,Linecode=BT801_BT801_4_2_3,Length=0.036538000,Units=km
new line.10240406 bus1=BBT3017037.1.2.0,bus2=BBT3017044.1.2.0,Phases=2,Linecode=BT106_BT106_7_2_1,Length=0.050324000,Units=km
new line.10240434 bus1=BBT3017023.1.2.0,bus2=BBT3017205.1.2.0,Phases=2,Linecode=BT106_BT106_7_2_1,Length=0.045936000,Units=km
new line.10240441 bus1=BBT3017023.1.2.0,bus2=BBT3017030.1.2.0,Phases=2,Linecode=BT106_BT106_7_2_1,Length=0.022346000,Units=km
new line.10240497 bus1=BBT3017016.1.2.0,bus2=BBT3017023.1.2.0,Phases=2,Linecode=BT106_BT106_7_2_1,Length=0.052395000,Units=km
new line.10240504 bus1=BBT3017016.1.2.0,bus2=BBT3017226.1.2.0,Phases=2,Linecode=BT106_BT106_7_2_1,Length=0.039898000,Units=km
new line.10240525 bus1=BBT3017226.1.2.0,bus2=BBT3017233.1.2.0,Phases=2,Linecode=BT106_BT106_7_2_1,Length=0.039025000,Units=km
new line.10240546 bus1=BBT3017240.1.2.0,bus2=BBT3017247.1.2.0,Phases=2,Linecode=BT106_BT106_7_2_1,Length=0.049615000,Units=km
new line.10241547 bus1=BBT3017380.1.2.0,bus2=BBT3017387.1.2.0,Phases=2,Linecode=BT106_BT106_7_2_1,Length=0.024397000,Units=km
new line.10241561 bus1=BBT3017387.1.2.0,bus2=BBT3017394.1.2.0,Phases=2,Linecode=BT106_BT106_7_2_1,Length=0.034386000,Units=km
new line.10243752 bus1=BBT3017394.1.2.0,bus2=BBT3017401.1.2.0,Phases=2,Linecode=BT106_BT106_7_2_1,Length=0.036114000,Units=km
new line.10244263 bus1=BBT3016995.1.2.0,bus2=BBT3017002.1.2.0,Phases=2,Linecode=BT207_BT207_7_2_1,Length=0.043799000,Units=km
new line.10244571 bus1=BBT3014286.1.2.0,bus2=BBT3014293.1.2.0,Phases=2,Linecode=BT106_BT106_7_2_1,Length=0.040471000,Units=km
new line.10244599 bus1=BBT3014083.1.2.0,bus2=BBT3014279.1.2.0,Phases=2,Linecode=BT108_BT107_7_2_1,Length=0.029188000,Units=km
new line.10244620 bus1=BBT3014076.1.2.0,bus2=BBT3014118.1.2.0,Phases=2,Linecode=BT106_BT106_7_2_1,Length=0.031809000,Units=km
new line.10244627 bus1=BBT3014076.1.2.0,bus2=BBT3014090.1.2.0,Phases=2,Linecode=BT106_BT106_7_2_1,Length=0.054067000,Units=km
new line.10244662 bus1=BBT3014118.1.2.0,bus2=BBT3014202.1.2.0,Phases=2,Linecode=BT106_BT106_7_2_1,Length=0.036908000,Units=km
new line.10244676 bus1=BBT3014202.1.2.0,bus2=BBT7429102.1.2.0,Phases=2,Linecode=BT808_BT808_4_2_3,Length=0.036228000,Units=km
new line.10244704 bus1=BBT7429102.1.2.0,bus2=BBT7429109.1.2.0,Phases=2,Linecode=BT808_BT808_4_2_3,Length=0.034518000,Units=km
new line.10244725 bus1=BBT3014244.1.2.0,bus2=BBT3014251.1.2.0,Phases=2,Linecode=BT106_BT106_7_2_1,Length=0.073878000,Units=km
new line.10246650 bus1=BBT7645304.1.2.0,bus2=BBT7645311.1.2.0,Phases=2,Linecode=BT513_BT509_7_2_1,Length=0.000500000,Units=km
new line.10248183 bus1=BBT2876078.1.2.0,bus2=BBT2876085.1.2.0,Phases=2,Linecode=BT518_BT518_7_2_1,Length=0.000500000,Units=km
new line.10249030 bus1=BBT2897442.1.2.0,bus2=BBT2897449.1.2.0,Phases=2,Linecode=BT107_BT106_7_2_1,Length=0.043026000,Units=km
new line.10249072 bus1=BBT2897316.1.2.0,bus2=BBT2897323.1.2.0,Phases=2,Linecode=BT801_BT801_4_2_3,Length=0.039300000,Units=km
new line.10249898 bus1=BBT2897498.1.2.0,bus2=BBT2897505.1.2.0,Phases=2,Linecode=BT106_BT106_7_2_1,Length=0.025483000,Units=km
new line.10249919 bus1=BBT2897540.1.2.0,bus2=BBT2897547.1.2.0,Phases=2,Linecode=BT106_BT106_7_2_1,Length=0.043808000,Units=km
new line.10249961 bus1=BBT59057938.1.2.0,bus2=BBT2897582.1.2.0,Phases=2,Linecode=BT808_BT808_4_2_3,Length=0.041090000,Units=km
new line.10106090 bus1=BBT6337648.1.0,bus2=BBT6337655.1.0,Phases=1,Linecode=BT811_BT811_4_1_3,Length=0.044393000,Units=km
new line.10111998 bus1=BBT5824247.1.2.0,bus2=BBT5824254.1.2.0,Phases=2,Linecode=BT518_BT518_7_2_1,Length=0.000500000,Units=km
new line.10113062 bus1=BBT4528169.1.2.0,bus2=BBT4528183.1.2.0,Phases=2,Linecode=BT808_BT808_4_2_3,Length=0.035831000,Units=km
new line.10113076 bus1=BBT4528162.1.2.0,bus2=BBT4528169.1.2.0,Phases=2,Linecode=BT808_BT808_4_2_3,Length=0.033985000,Units=km
new line.10115841 bus1=BBT6321625.1.0,bus2=BBT6321632.1.0,Phases=1,Linecode=BT811_BT811_4_1_3,Length=0.089243000,Units=km
new line.10116261 bus1=BBT2691649.1.2.0,bus2=BBT6318202.1.2.0,Phases=2,Linecode=BT518_BT518_7_2_1,Length=0.000500000,Units=km
new line.10116275 bus1=BBT6318202.2.0,bus2=BBT6318468.2.0,Phases=1,Linecode=BT811_BT811_4_1_3,Length=0.077838000,Units=km
new line.10116282 bus1=BBT6318202.1.0,bus2=BBT6318475.1.0,Phases=1,Linecode=BT811_BT811_4_1_3,Length=0.085659000,Units=km
new line.10116702 bus1=BBT4982119.1.2.0,bus2=BBT4982126.1.2.0,Phases=2,Linecode=BT808_BT808_4_2_3,Length=0.054603000,Units=km
new line.10117087 bus1=BBT6460015.2.0,bus2=BBT6460022.2.0,Phases=1,Linecode=BT811_BT811_4_1_3,Length=0.050657000,Units=km
new line.10119642 bus1=BBT3018962.1.2.3.0,bus2=BBT3018976.1.2.3.0,Phases=3,Linecode=BT810_BT810_4_3_4,Length=0.034353000,Units=km
new line.10119663 bus1=BBT3018885.1.2.3.0,bus2=BBT3019011.1.2.3.0,Phases=3,Linecode=BT803_BT803_4_3_4,Length=0.045084000,Units=km
new line.10119670 bus1=BBT3018885.1.2.3.0,bus2=BBT3018892.1.2.3.0,Phases=3,Linecode=BT803_BT803_4_3_4,Length=0.028851000,Units=km
new line.10119677 bus1=BBT3018885.1.2.3.0,bus2=BBT3018990.1.2.3.0,Phases=3,Linecode=BT810_BT810_4_3_4,Length=0.043813000,Units=km
new line.10119698 bus1=BBT3018899.1.2.3.0,bus2=BBT3018906.1.2.3.0,Phases=3,Linecode=BT810_BT810_4_3_4,Length=0.039546000,Units=km
new line.10119719 bus1=BBT3019144.1.2.3.0,bus2=BBT3019151.1.2.3.0,Phases=3,Linecode=BT803_BT803_4_3_4,Length=0.017798000,Units=km
new line.10119740 bus1=BBT3019137.1.2.3.0,bus2=BBT3019144.1.2.3.0,Phases=3,Linecode=BT803_BT803_4_3_4,Length=0.021924000,Units=km
new line.10119768 bus1=BBT3019158.1.2.0,bus2=BBT3019165.1.2.0,Phases=2,Linecode=BT801_BT801_4_2_3,Length=0.025289000,Units=km
new line.10119775 bus1=BBT3019158.1.2.3.0,bus2=BBT3019179.1.2.3.0,Phases=3,Linecode=BT803_BT803_4_3_4,Length=0.037470000,Units=km
new line.10121308 bus1=BBT4755669.1.2.0,bus2=BBT4755676.1.2.0,Phases=2,Linecode=BT521_BT521_7_2_1,Length=0.000500000,Units=km
new line.10123947 bus1=BBT6320526.1.0,bus2=BBT6320533.1.0,Phases=1,Linecode=BT816_BT816_4_1_2,Length=0.061242000,Units=km
new line.10124626 bus1=BBT3310246.1.2.0,bus2=BBT3310239.1.2.0,Phases=2,Linecode=BT107_BT107_7_2_1,Length=0.062908000,Units=km
new line.10124640 bus1=BBT3310239.1.2.0,bus2=BBT24678369.1.2.0,Phases=2,Linecode=BT107_BT107_7_2_1,Length=0.024748000,Units=km
new line.10124696 bus1=BBT3310218.1.2.0,bus2=BBT3310232.1.2.0,Phases=2,Linecode=BT107_BT107_7_2_1,Length=0.059479000,Units=km
new line.10124717 bus1=BBT3310281.1.2.0,bus2=BBT3310288.1.2.0,Phases=2,Linecode=BT108_BT108_7_2_1,Length=0.042431000,Units=km
new line.10128154 bus1=BBT6208421.1.0,bus2=BBT6208428.1.0,Phases=1,Linecode=BT106_BT106_7_1_1,Length=0.074862000,Units=km
new line.10131388 bus1=BBT6550749.2.0,bus2=BBT6550756.2.0,Phases=1,Linecode=BT811_BT811_4_1_3,Length=0.079379000,Units=km
new line.10134559 bus1=BBT3412887.1.2.0,bus2=BBT3412894.1.2.0,Phases=2,Linecode=BT106_BT106_7_2_1,Length=0.046809000,Units=km
new line.10134601 bus1=BBT3412880.1.2.0,bus2=BBT3412887.1.2.0,Phases=2,Linecode=BT807_BT807_4_2_3,Length=0.029608000,Units=km
new line.10134622 bus1=BBT3412859.1.2.0,bus2=BBT21100018.1.2.0,Phases=2,Linecode=BT808_BT808_4_2_3,Length=0.049649000,Units=km
new line.10134629 bus1=BBT3412859.1.2.0,bus2=BBT3412866.1.2.0,Phases=2,Linecode=BT106_BT106_7_2_1,Length=0.045784000,Units=km
new line.10134664 bus1=BBT3412754.1.2.0,bus2=BBT3412768.1.2.0,Phases=2,Linecode=BT107_BT106_7_2_1,Length=0.048250000,Units=km
new line.10134671 bus1=BBT3412754.1.2.0,bus2=BBT3412796.1.2.0,Phases=2,Linecode=BT106_BT106_7_2_1,Length=0.045212000,Units=km
new line.10134692 bus1=BBT3412922.1.2.0,bus2=BBT3412943.1.2.0,Phases=2,Linecode=BT106_BT106_7_2_1,Length=0.028595000,Units=km
new line.10134699 bus1=BBT3412922.1.2.0,bus2=BBT3412929.1.2.0,Phases=2,Linecode=BT106_BT106_7_2_1,Length=0.031821000,Units=km
new line.10134741 bus1=BBT3412950.1.2.0,bus2=BBT21100585.1.2.0,Phases=2,Linecode=BT808_BT808_4_2_3,Length=0.056291000,Units=km
new line.10135714 bus1=BBT5964373.1.2.0,bus2=BBT5964380.1.2.0,Phases=2,Linecode=BT518_BT518_7_2_1,Length=0.000500000,Units=km
new line.10135721 bus1=BBT5964380.1.2.0,bus2=BBT5964429.1.2.0,Phases=2,Linecode=BT808_BT808_4_2_3,Length=0.049760000,Units=km
new line.10135728 bus1=BBT5964429.1.2.0,bus2=BBT5964436.1.2.0,Phases=2,Linecode=BT808_BT808_4_2_3,Length=0.043374000,Units=km
new line.10135784 bus1=BBT5964926.1.0,bus2=BBT5964933.1.0,Phases=1,Linecode=BT106_BT106_7_1_1,Length=0.076222000,Units=km
new line.10136155 bus1=BBT6517730.1.0,bus2=BBT6517737.1.0,Phases=1,Linecode=BT811_BT811_4_1_3,Length=0.085363000,Units=km
new line.10137058 bus1=BBT6514720.1.2.0,bus2=BBT6514727.1.2.0,Phases=2,Linecode=BT518_BT518_7_2_1,Length=0.000500000,Units=km
new line.10202074 bus1=BBT2899297.1.2.0,bus2=BBT2899304.1.2.0,Phases=2,Linecode=BT518_BT518_7_2_1,Length=0.000500000,Units=km
new line.10225195 bus1=BBT4452401.1.2.0,bus2=BBT4452394.1.2.0,Phases=2,Linecode=BT108_BT108_7_2_1,Length=0.054353000,Units=km
new line.10225216 bus1=BBT4452394.1.2.0,bus2=BBT166850694.1.2.0,Phases=2,Linecode=BT108_BT108_7_2_1,Length=0.046819000,Units=km
new line.10225223 bus1=BBT4452387.1.2.0,bus2=BBT6282817.1.2.0,Phases=2,Linecode=BT808_BT808_4_2_3,Length=0.045256000,Units=km
new line.10225251 bus1=BBT4452380.1.2.0,bus2=BBT6282453.1.2.0,Phases=2,Linecode=BT108_BT108_7_2_1,Length=0.015290000,Units=km
new line.10225258 bus1=BBT4452380.1.2.0,bus2=BBT6282691.1.2.0,Phases=2,Linecode=BT808_BT808_4_2_3,Length=0.045079000,Units=km
new line.10226182 bus1=BBT4796871.1.2.0,bus2=BBT4796878.1.2.0,Phases=2,Linecode=BT808_BT808_4_2_3,Length=0.092272000,Units=km
new line.10227141 bus1=BBT12487876.2.0,bus2=BBT3119384.2.0,Phases=1,Linecode=BT106_BT106_7_1_1,Length=0.090512000,Units=km
new line.10227512 bus1=BBT12780623.2.0,bus2=BBT12780644.2.0,Phases=1,Linecode=BT816_BT816_4_1_2,Length=0.066857000,Units=km
new line.10227554 bus1=BBT12788918.2.0,bus2=BBT12788925.2.0,Phases=1,Linecode=BT106_BT106_7_1_1,Length=0.028430000,Units=km
new line.10227799 bus1=BBT16359324.1.2.0,bus2=BBT16359331.1.2.0,Phases=2,Linecode=BT518_BT518_7_2_1,Length=0.000500000,Units=km
new line.10228240 bus1=BBT11713662.1.0,bus2=BBT11713704.1.0,Phases=1,Linecode=BT106_BT106_7_1_1,Length=0.046498000,Units=km
new line.10228254 bus1=BBT11713704.1.0,bus2=BBT11713711.1.0,Phases=1,Linecode=BT106_BT106_7_1_1,Length=0.117363000,Units=km
new line.10228408 bus1=BBT11727676.2.0,bus2=BBT11727781.2.0,Phases=1,Linecode=BT801_BT801_4_1_3,Length=0.035836000,Units=km
new line.10231082 bus1=BBT12159695.1.2.0,bus2=BBT12159702.1.2.0,Phases=2,Linecode=BT518_BT518_7_2_1,Length=0.000500000,Units=km
new line.10231278 bus1=BBT12191685.1.0,bus2=BBT12192070.1.0,Phases=1,Linecode=BT816_BT816_4_1_2,Length=0.052544000,Units=km
new line.10138577 bus1=BBT6514629.1.2.0,bus2=BBT6514636.1.2.0,Phases=2,Linecode=BT518_BT518_7_2_1,Length=0.000500000,Units=km
new line.10138591 bus1=BBT6514636.1.0,bus2=BBT6514643.1.0,Phases=1,Linecode=BT811_BT811_4_1_3,Length=0.087776000,Units=km
new line.10139571 bus1=BBT6547074.2.0,bus2=BBT6547081.2.0,Phases=1,Linecode=BT811_BT811_4_1_3,Length=0.073367000,Units=km
new line.10139767 bus1=BBT6547193.2.0,bus2=BBT6547200.2.0,Phases=1,Linecode=BT811_BT811_4_1_3,Length=0.084477000,Units=km
new line.10139774 bus1=BBT6547193.2.0,bus2=BBT6547221.2.0,Phases=1,Linecode=BT811_BT811_4_1_3,Length=0.080980000,Units=km
new line.10141020 bus1=BBT6457845.2.0,bus2=BBT6457852.2.0,Phases=1,Linecode=BT106_BT106_7_1_1,Length=0.096307000,Units=km
new line.10141076 bus1=BBT6457859.2.0,bus2=BBT6457866.2.0,Phases=1,Linecode=BT811_BT811_4_1_3,Length=0.042052000,Units=km
new line.10141818 bus1=BBT6452616.1.0,bus2=BBT6452679.1.0,Phases=1,Linecode=BT106_BT106_7_1_1,Length=0.076899000,Units=km
new line.10141874 bus1=BBT6452707.1.2.0,bus2=BBT176029602.1.2.0,Phases=2,Linecode=BT807_BT807_4_2_3,Length=0.026298000,Units=km
new line.10142469 bus1=BBT6456018.1.2.0,bus2=BBT6456025.1.2.0,Phases=2,Linecode=BT518_BT518_7_2_1,Length=0.000563000,Units=km
new line.10143099 bus1=BBT151158533.1.2.0,bus2=BBT6379389.1.2.0,Phases=2,Linecode=BT807_BT807_4_2_3,Length=0.036703000,Units=km
new line.10143246 bus1=BBT6385353.1.0,bus2=BBT6385360.1.0,Phases=1,Linecode=BT811_BT811_4_1_3,Length=0.070765000,Units=km
new line.10143267 bus1=BBT6385360.1.0,bus2=BBT6385367.1.0,Phases=1,Linecode=BT811_BT811_4_1_3,Length=0.027075000,Units=km
new line.10143736 bus1=BBT6382721.1.2.0,bus2=BBT6382728.1.2.0,Phases=2,Linecode=BT518_BT518_7_2_1,Length=0.000515000,Units=km
new line.10143743 bus1=BBT6382728.2.0,bus2=BBT6382735.2.0,Phases=1,Linecode=BT106_BT106_7_1_1,Length=0.149321000,Units=km
new line.10143757 bus1=BBT6382735.2.0,bus2=BBT6382742.2.0,Phases=1,Linecode=BT106_BT106_7_1_1,Length=0.054939000,Units=km
new line.10143848 bus1=BBT6379613.1.0,bus2=BBT6379620.1.0,Phases=1,Linecode=BT811_BT811_4_1_3,Length=0.079735000,Units=km
new line.10144044 bus1=BBT6433114.1.0,bus2=BBT6433135.1.0,Phases=1,Linecode=BT811_BT811_4_1_3,Length=0.032270000,Units=km
new line.10144142 bus1=BBT6434899.1.0,bus2=BBT6434906.1.0,Phases=1,Linecode=BT106_BT106_7_1_1,Length=0.128874000,Units=km
new line.10144289 bus1=BBT6436117.1.0,bus2=BBT6436138.1.0,Phases=1,Linecode=BT106_BT106_7_1_1,Length=0.130581000,Units=km
new line.10144947 bus1=BBT6438238.1.0,bus2=BBT6438252.1.0,Phases=1,Linecode=BT811_BT811_4_1_3,Length=0.099127000,Units=km
new line.10145444 bus1=BBT6444412.1.2.0,bus2=BBT6444419.1.2.0,Phases=2,Linecode=BT811_BT811_4_2_3,Length=0.123931000,Units=km
new line.10145878 bus1=BBT6445525.1.0,bus2=BBT6445532.1.0,Phases=1,Linecode=BT106_BT106_7_1_1,Length=0.123999000,Units=km
new line.10146081 bus1=BBT6449102.1.0,bus2=BBT6449109.1.0,Phases=1,Linecode=BT106_BT106_7_1_1,Length=0.051908000,Units=km
new line.10146179 bus1=BBT6449123.1.0,bus2=BBT6449130.1.0,Phases=1,Linecode=BT106_BT106_7_1_1,Length=0.098033000,Units=km
...
